SOLVER= NAVIER_STOKES
KIND_TURB_MODEL= NONE
MATH_PROBLEM= DIRECT
RESTART_SOL= NO
MACH_NUMBER= 0.1
AOA= 0.0
SIDESLIP_ANGLE= 0.0
FREESTREAM_TEMPERATURE= 288.15
REYNOLDS_NUMBER= 200.0
REYNOLDS_LENGTH= 1.0
SURFACE_MOVEMENT= MOVING_WALL
MACH_MOTION= 0.1
MARKER_MOVING= ( cylinder )
SURFACE_MOTION_ORIGIN= 0.5 0.0 0.0
SURFACE_ROTATION_RATE= 0.0 0.0 20.0
TIME_DOMAIN= YES
TIME_STEP= 5e-3
TIME_ITER= 1000
TIME_MARCHING= DUAL_TIME_STEPPING-2ND_ORDER
MAX_TIME= 10000
REF_ORIGIN_MOMENT_X= 0.00
REF_ORIGIN_MOMENT_Y= 0.00
REF_ORIGIN_MOMENT_Z= 0.00
REF_LENGTH= 1.0
REF_AREA= 1.0
CUSTOM_OBJFUNC= 'LIFT'
MARKER_HEATFLUX= ( cylinder, 0.0 )
MARKER_FAR= ( farfield )
MARKER_PLOTTING= ( cylinder )
MARKER_MONITORING= ( cylinder )
MARKER_DESIGNING= ( cylinder )
NUM_METHOD_GRAD= WEIGHTED_LEAST_SQUARES
CFL_NUMBER= 100.0
CFL_ADAPT= NO
CFL_ADAPT_PARAM= ( 1.5, 0.5, 1.0, 100.0 )
INNER_ITER= 99999
VENKAT_LIMITER_COEFF= 0.03
ADJ_SHARP_LIMITER_COEFF= 3.0
REF_SHARP_EDGES= 3.0
SENS_REMOVE_SHARP= NO
LINEAR_SOLVER= FGMRES
LINEAR_SOLVER_PREC= LU_SGS
LINEAR_SOLVER_ERROR= 1E-4
LINEAR_SOLVER_ITER= 50
MGLEVEL= 3
MGCYCLE= V_CYCLE
MG_PRE_SMOOTH= ( 1, 1, 1, 1 )
MG_POST_SMOOTH= ( 0, 0, 0, 0 )
MG_CORRECTION_SMOOTH= ( 0, 0, 0, 0 )
MG_DAMP_RESTRICTION= 0.5
MG_DAMP_PROLONGATION= 0.5
CONV_NUM_METHOD_FLOW= ROE
MUSCL_FLOW= YES
SLOPE_LIMITER_FLOW= NONE
JST_SENSOR_COEFF= ( 0.5, 0.02 )
TIME_DISCRE_FLOW= EULER_IMPLICIT
HISTORY_OUTPUT= TIME_ITER, LIFT, DRAG, TAVG_AERO_COEFF, D_TAVG_AERO_COEFF
CONV_RESIDUAL_MINVAL= -17
CONV_STARTITER= 1
CONV_CAUCHY_ELEMS= 100
CONV_CAUCHY_EPS= 1E-7
MESH_FILENAME= mesh_cylinder_lam.su2
MESH_FORMAT= SU2
MESH_OUT_FILENAME= mesh_out.su2
SOLUTION_FILENAME= solution_flow.dat
SOLUTION_ADJ_FILENAME= solution_adj.dat
TABULAR_FORMAT= CSV
CONV_FILENAME= history
RESTART_FILENAME= restart_flow.csv
OUTPUT_WRT_FREQ= 1
SCREEN_OUTPUT= (INNER_ITER, RMS_DENSITY, RMS_ENERGY, LIFT, DRAG)
OUTPUT_FILES= (RESTART, CSV, PARAVIEW, SURFACE_PARAVIEW)
RESTART_ADJ_FILENAME= restart_adj.dat
VOLUME_FILENAME= flow
VOLUME_ADJ_FILENAME= adjoint
GRAD_OBJFUNC_FILENAME= of_grad.dat
SURFACE_FILENAME= surface_flow
SURFACE_ADJ_FILENAME= surface_adjoint
DV_VALUE_NEW= 0
DV_VALUE_OLD= 0
OPT_ITERATIONS= 100
OPT_ACCURACY= 1e-10
OPT_RELAX_FACTOR= 1.0
OPT_GRADIENT_FACTOR= 1.0
OPT_BOUND_UPPER= 10000000000.0
OPT_BOUND_LOWER= -10000000000.0
OPT_COMBINE_OBJECTIVE= NO
OPT_CONSTRAINT= NONE
VALUE_OBJFUNC_FILENAME= of_eval.dat
TARGET_CL= 0.0
FREESTREAM_PRESSURE= 101325.0
MARKER_OUTLET= (NONE)
MULTIPOINT_WEIGHT= (1.0)
MULTIPOINT_MACH_NUMBER= (0.1)
MULTIPOINT_AOA= (0.0)
MULTIPOINT_SIDESLIP_ANGLE= (0.0)
MULTIPOINT_REYNOLDS_NUMBER= (200.0)
MULTIPOINT_TARGET_CL= (0.0)
MULTIPOINT_FREESTREAM_PRESSURE= (101325.0)
MULTIPOINT_FREESTREAM_TEMPERATURE= (288.15)
MULTIPOINT_OUTLET_VALUE= (0.0)
MULTIPOINT_MESH_FILENAME= (mesh_cylinder_lam.su2)
OBJECTIVE_FUNCTION= DRAG
DV_KIND= FFD_SETTING
DV_PARAM= ( 1, 0.5) 
DEFINITION_DV= ( 30 , 1.0 | WING  | 0.0 , 0.05  )
DV_VALUE= 0
