TIME_DOMAIN= YES
MATH_PROBLEM= DIRECT
MAX_TIME= 10
TIME_MARCHING= DUAL_TIME_STEPPING-2ND_ORDER
TIME_STEP= 5e-2
TIME_ITER= 10
UNST_ADJOINT_ITER= 421
INNER_ITER= 10000
TIME_DISCRE_FLOW= EULER_IMPLICIT
SOLVER= INC_RANS
KIND_TURB_MODEL= SA
VISCOSITY_MODEL= CONSTANT_VISCOSITY
MU_CONSTANT= 1.853e-05
INC_DENSITY_INIT= 2.13163
INC_INLET_TYPE= VELOCITY_INLET
MARKER_INLET= (inlet,1,10,1,0,0)
INC_VELOCITY_INIT= ( 10, 0, 0.0 )
INC_OUTLET_TYPE= PRESSURE_OUTLET
MARKER_OUTLET= (outlet, 0)
INC_NONDIM= INITIAL_VALUES
INC_DENSITY_REF= 1.0
INC_VELOCITY_REF= 1.0
INC_TEMPERATURE_REF= 1.0
REF_ORIGIN_MOMENT_X= -2.5
REF_ORIGIN_MOMENT_Y= 0.00
REF_ORIGIN_MOMENT_Z= 0.00
REF_LENGTH= 1.0
REF_AREA= 1.0
MARKER_HEATFLUX= ( cylinder, 0.0 )
SURFACE_MOVEMENT= MOVING_WALL
MACH_MOTION= 0.1
MARKER_MOVING= ( cylinder )
SURFACE_MOTION_ORIGIN= -2.5 0.0 0.0
SURFACE_ROTATION_RATE= 0.0 0.0 0.0
MARKER_EULER= ( wall )
MARKER_PLOTTING= ( cylinder )
MARKER_MONITORING= ( cylinder )
NUM_METHOD_GRAD= WEIGHTED_LEAST_SQUARES
CFL_NUMBER= 20.0
CFL_ADAPT= NO
CFL_ADAPT_PARAM= ( 0.1, 1.2, 25.0, 1e3 )
RK_ALPHA_COEFF= ( 0.66667, 0.66667, 1.000000 )
VENKAT_LIMITER_COEFF= 0.05
ADJ_SHARP_LIMITER_COEFF= 3.0
REF_SHARP_EDGES= 3.0
SENS_REMOVE_SHARP= NO
LINEAR_SOLVER= FGMRES
LINEAR_SOLVER_ERROR= 1E-10
LINEAR_SOLVER_ITER= 100
MGLEVEL= 0
MGCYCLE= V_CYCLE
MG_PRE_SMOOTH= ( 1, 1, 1, 1 )
MG_POST_SMOOTH= ( 0, 0, 0, 0 )
MG_CORRECTION_SMOOTH= ( 0, 0, 0, 0 )
MG_DAMP_RESTRICTION= 0.8
MG_DAMP_PROLONGATION= 0.8
CONV_NUM_METHOD_FLOW= JST
SLOPE_LIMITER_FLOW= NONE
JST_SENSOR_COEFF= ( 0.0, 0.02 )
CONV_NUM_METHOD_TURB= SCALAR_UPWIND
MUSCL_TURB= NO
SLOPE_LIMITER_TURB= VENKATAKRISHNAN
TIME_DISCRE_TURB= EULER_IMPLICIT
CONV_RESIDUAL_MINVAL= -10
CONV_STARTITER= 1
CONV_CAUCHY_ELEMS= 100
CONV_CAUCHY_EPS= 1E-7
MESH_FILENAME= cylinder.su2
MESH_FORMAT= SU2
MESH_OUT_FILENAME= mesh_out.su2
SOLUTION_FILENAME= flow.csv
SOLUTION_ADJ_FILENAME= solution_adj.dat
TABULAR_FORMAT= CSV
OUTPUT_FILES= (RESTART_ASCII, PARAVIEW)
CONV_FILENAME= history
HISTORY_OUTPUT= TIME_ITER, LIFT, DRAG, COMBO, TAVG_AERO_COEFF, D_TAVG_AERO_COEFF
OUTPUT_WRT_FREQ= 1
RESTART_FILENAME= flow.csv
RESTART_ADJ_FILENAME= restart_adj.dat
VOLUME_FILENAME= flow
VOLUME_ADJ_FILENAME= adjoint
GRAD_OBJFUNC_FILENAME= of_grad.dat
SURFACE_FILENAME= surface_flow
SURFACE_ADJ_FILENAME= surface_adjoint
SCREEN_OUTPUT= (INNER_ITER, WALL_TIME,RMS_DENSITY, RMS_PRESSURE, RMS_NU_TILDE, LIFT, DRAG)
MARKER_INTERNAL= (internal )
DV_VALUE_NEW= 0
DV_VALUE_OLD= 0
OPT_ITERATIONS= 100
OPT_ACCURACY= 1e-10
OPT_RELAX_FACTOR= 1.0
OPT_GRADIENT_FACTOR= 1.0
OPT_BOUND_UPPER= 10000000000.0
OPT_BOUND_LOWER= -10000000000.0
OPT_COMBINE_OBJECTIVE= NO
OPT_CONSTRAINT= NONE
VALUE_OBJFUNC_FILENAME= of_eval.dat
AOA= 0.0
SIDESLIP_ANGLE= 0.0
MACH_NUMBER= 0.0
REYNOLDS_NUMBER= 0.0
TARGET_CL= 0.0
FREESTREAM_PRESSURE= 101325.0
FREESTREAM_TEMPERATURE= 288.15
MULTIPOINT_WEIGHT= (1.0)
MULTIPOINT_MACH_NUMBER= (0.0)
MULTIPOINT_AOA= (0.0)
MULTIPOINT_SIDESLIP_ANGLE= (0.0)
MULTIPOINT_REYNOLDS_NUMBER= (0.0)
MULTIPOINT_TARGET_CL= (0.0)
MULTIPOINT_FREESTREAM_PRESSURE= (101325.0)
MULTIPOINT_FREESTREAM_TEMPERATURE= (288.15)
MULTIPOINT_OUTLET_VALUE= ( 0)
MULTIPOINT_MESH_FILENAME= (cylinder.su2)
OBJECTIVE_FUNCTION= DRAG
DV_KIND= FFD_SETTING
DV_PARAM= ( 1, 0.5) 
DEFINITION_DV= ( 30 , 1.0 | WING  | 0.0 , 0.05  )
DV_VALUE= 0
